#p uhf/6-31g Opt(Z-matrix)

CH4 C-H Scan

0 1
 C
 H                  1            B1
 H                  1            B2    2            A1
 H                  1            B3    3            A2    2            D1    0
 H                  1            B4    4            A3    2            D2    0

   B1             0.60000000 S 30 0.1
   B2             1.07000000
   B3             1.07000000
   B4             1.07000000
   A1           109.47122063
   A2           109.47122063
   A3           109.47122063
   D1          -120.00000000
   D2          -120.00000000

